Infrared Spectrum: BENZENE, METHYL-
Formula: C7 H8
CAS: 108-88-3
State: SOLUTION (10% IN CCl4 FOR 3800-1330 AND 10% IN CS2 FOR 1330-450 CM^-^1)
Class: COBLENTZ III
Instrument: DOW KBr FOREPRISM-GRATING
Instrument parameters: BLAZED AT 3.5, 12.0, 20.0 MICRON, CHANGED AT 5.0, 7.5, 14.9 MICRON
Sampling: TRANSMISSION
Path length: 0.011, 0.011 CM
Resolution: 4
Origin: DOW CHEMICAL COMPANY
1/CM	TRANSMITTANCE
443.413	0.569
452.119	0.525
460.825	0.334
469.53	0.5731
478.236	0.927
486.942	0.953
495.648	0.968
504.353	0.971
513.059	0.971
521.765	0.948
530.471	0.987
539.176	0.995
547.882	1.009
556.588	1.012
565.294	1.01
574	1.012
582.705	1.013
591.411	1.01
600.117	1.012
608.823	1.008
617.528	0.997
626.234	0.99
634.94	0.982
643.646	0.959
652.351	0.93
661.057	0.947
669.763	0.933
678.469	0.832
687.175	0.785
695.88	0.023
704.586	0.5291
713.292	0.819
721.998	0.572
730.703	0
739.409	0.2061
748.115	0.714
756.821	0.881
765.526	0.959
774.232	0.979
782.938	0.975
791.644	0.963
800.35	0.99
809.055	0.991
817.761	0.991
826.467	0.986
835.173	0.957
843.878	0.902
852.584	0.842
861.29	0.82
869.996	0.851
878.701	0.888
887.407	0.919
896.113	0.83
904.819	0.967
913.525	0.986
922.23	0.991
930.936	0.982
939.642	0.983
948.348	0.971
957.053	0.963
965.759	0.955
974.465	0.952
983.171	0.957
991.876	0.966
1000.58	0.961
1009.29	0.963
1017.99	0.948
1026.7	0.872
1035.41	0.6253
1044.11	0.775
1052.82	0.885
1061.52	0.926
1070.23	0.908
1078.93	0.7539
1087.64	0.7861
1096.35	0.953
1105.05	0.904
1113.76	0.979
1122.46	1.005
1131.17	0.997
1139.87	0.976
1148.58	0.952
1157.29	0.925
1165.99	0.933
1174.7	0.91
1183.4	0.9
1192.11	0.941
1200.81	0.957
1209.52	0.944
1218.23	0.986
1226.93	1.006
1235.64	1.01
1244.34	0.991
1253.05	0.995
1261.76	0.998
1270.46	0.995
1279.17	0.995
1287.87	0.994
1296.58	0.986
1305.28	0.983
1313.99	0.971
1322.7	0.967
1331.4	0.959
1340.11	0.959
1348.81	0.955
1357.52	0.945
1366.22	0.93
1374.93	0.899
1383.64	0.7551
1392.34	0.921
1401.05	0.934
1409.75	0.921
1418.46	0.895
1427.16	0.854
1435.87	0.83
1444.58	0.732
1453.28	0.601
1461.99	0.501
1470.69	0.536
1479.4	0.664
1488.11	0.684
1496.81	0.3788
1505.52	0.4741
1514.22	0.683
1522.93	0.66
1531.63	0.611
1540.34	0.561
1549.05	0.49
1557.75	0.497
1566.46	0.559
1575.16	0.603
1583.87	0.656
1592.57	0.687
1601.28	0.6749
1609.99	0.457
1618.69	0.857
1627.4	0.866
1636.1	0.932
1644.81	0.944
1653.51	0.955
1662.22	0.963
1670.93	0.975
1679.63	0.97
1688.34	0.975
1697.04	0.975
1705.75	0.98
1714.46	0.982
1723.16	0.978
1731.87	0.955
1740.57	0.937
1749.28	0.978
1757.98	0.985
1766.69	0.979
1775.4	0.978
1784.1	0.971
1792.81	0.96
1801.51	0.911
1810.22	0.8951
1818.92	0.955
1827.63	0.957
1836.34	0.971
1845.04	0.968
1853.75	0.932
1862.45	0.857
1871.16	0.929
1879.86	0.927
1888.57	0.974
1897.28	0.98
1905.98	0.983
1914.69	0.983
1923.39	0.978
1932.1	0.964
1940.81	0.8829
1949.51	0.8991
1958.22	0.926
1966.92	0.955
1975.63	0.98
1984.33	0.976
1993.04	0.982
2001.75	1.004
2010.45	1.002
2019.16	0.998
2027.86	1.0021
2036.57	1.013
2045.27	1.0099
2053.98	1.002
2062.69	1.005
2071.39	1.009
2080.1	1.012
2088.8	1.0099
2097.51	1.008
2106.21	1.0091
2114.92	1.0131
2123.63	1.014
2132.33	1.013
2141.04	1.0118
2149.74	1.0089
2158.45	1.0046
2167.16	1.0001
2175.86	1.005
2184.57	1.004
2193.27	1.006
2201.98	1.0059
2210.68	1.005
2219.39	1.005
2228.1	1.002
2236.8	1
2245.51	0.9978
2254.21	0.9923
2262.92	0.985
2271.62	0.9828
2280.33	0.9776
2289.04	0.975
2297.74	0.9764
2306.45	0.9812
2315.15	0.9716
2323.86	0.9949
2332.56	1.0015
2341.27	1
2349.98	1.0002
2358.68	1.009
2367.39	1.009
2376.09	1.008
2384.8	0.9992
2393.51	0.9973
2402.21	0.9962
2410.92	0.99
2419.62	0.9943
2428.33	0.9986
2437.03	1.001
2445.74	1.001
2454.45	0.998
2463.15	0.998
2471.86	0.998
2480.56	0.997
2489.27	0.997
2497.97	0.998
2506.68	1
2515.39	1
2524.09	0.998
2532.8	0.9989
2541.5	1
2550.21	1
2558.91	0.9987
2567.62	0.998
2576.33	0.9936
2585.03	0.9746
2593.74	0.9904
2602.44	0.9906
2611.15	0.9918
2619.86	0.995
2628.56	0.995
2637.27	0.998
2645.97	0.998
2654.68	0.9991
2663.38	0.998
2672.09	0.998
2680.8	1
2689.5	1
2698.21	0.9975
2706.91	0.9945
2715.62	0.992
2724.32	0.9826
2733.03	0.9407
2741.74	0.9739
2750.44	0.99
2759.15	0.99
2767.85	0.989
2776.56	0.987
2785.26	0.9865
2793.97	0.982
2802.68	0.9755
2811.38	0.9689
2820.09	0.9614
2828.79	0.9508
2837.5	0.9251
2846.21	0.8744
2854.91	0.7954
2863.62	0.6927
2872.32	0.671
2881.03	0.69
2889.73	0.7443
2898.44	0.7634
2907.15	0.7245
2915.85	0.5544
2924.56	0.4091
2933.26	0.5185
2941.97	0.5775
2950.67	0.5637
2959.38	0.5884
2968.09	0.6575
2976.79	0.658
2985.5	0.6729
2994.2	0.7003
3002.91	0.6707
3011.61	0.6209
3020.32	0.4981
3029.03	0.2117
3037.73	0.2665
3046.44	0.5347
3055.14	0.5672
3063.85	0.5093
3072.56	0.5178
3081.26	0.6673
3089.97	0.5414
3098.67	0.7103
3107.38	0.8285
3116.08	0.9002
3124.79	0.9532
3133.5	0.986
3142.2	0.9938
3150.91	0.995
3159.61	0.995
3168.32	0.994
3177.02	1.001
3185.73	1.001
3194.44	1.001
3203.14	1.001
3211.85	1.001
3220.55	1.001
3229.26	0.998
3237.96	0.998
3246.67	0.9953
3255.38	0.995
3264.08	0.994
3272.79	0.994
3281.49	0.993
3290.2	0.99
3298.91	0.9899
3307.61	0.989
3316.32	0.989
3325.02	0.985
3333.73	0.982
3342.43	0.98
3351.14	0.983
3359.85	0.9781
3368.55	0.975
3377.26	0.974
3385.96	0.97
3394.67	0.968
3403.37	0.97
3412.08	0.9719
3420.79	0.974
3429.49	0.974
3438.2	0.974
3446.9	0.976
3455.61	0.983
3464.31	0.986
3473.02	0.99
3481.73	0.993
3490.43	0.995
3499.14	0.997
3507.84	0.997
3516.55	1
3525.26	1.002
3533.96	1.004
3542.67	1.006
3551.37	1.006
3560.08	1.006
3568.78	1.006
3577.49	1.006
3586.2	1.006
3594.9	1.006
3603.61	1.0079
3612.31	1.005
3621.02	1.005
3629.72	1.006
3638.43	0.9998
3647.14	1.001
3655.84	1.004
3664.55	1.0062
3673.25	1.0078
3681.96	1.0049
3690.66	1.0001
3699.37	1.006
3708.08	1.0041
3716.78	1.0091
3725.49	1.01
3734.19	1.0103
3742.9	1.012
3751.61	1.008
3760.31	1.01
3769.02	1.009
3777.72	1.006
3786.43	1.0058
